145925915
  -OEChem-07162601433D

 30 32  0     0  0  0  0  0  0999 V2000
    2.8880    1.3356   -1.2250 S   0  0  0  0  0  0  0  0  0  0  0  0
   -5.5774    1.3135    0.1793 O   0  0  0  0  0  0  0  0  0  0  0  0
   -4.3812   -2.3800   -1.1105 O   0  0  0  0  0  0  0  0  0  0  0  0
   -6.0169   -1.4091    0.1339 O   0  0  0  0  0  0  0  0  0  0  0  0
    2.4140   -0.3096    0.7040 N   0  0  0  0  0  0  0  0  0  0  0  0
   -0.1952   -0.0714    0.2467 N   0  0  0  0  0  0  0  0  0  0  0  0
    0.5396    0.8950   -0.1200 N   0  0  0  0  0  0  0  0  0  0  0  0
    4.2223    0.4417   -0.5978 C   0  0  0  0  0  0  0  0  0  0  0  0
    3.7720   -0.3894    0.4324 C   0  0  0  0  0  0  0  0  0  0  0  0
   -3.8732   -0.3606   -0.0395 C   0  0  0  0  0  0  0  0  0  0  0  0
   -1.5576    0.2734    0.2299 C   0  0  0  0  0  0  0  0  0  0  0  0
    5.5705    0.4737   -0.9892 C   0  0  0  0  0  0  0  0  0  0  0  0
    4.7061   -1.2169    1.0925 C   0  0  0  0  0  0  0  0  0  0  0  0
   -2.5212   -0.7031   -0.0220 C   0  0  0  0  0  0  0  0  0  0  0  0
    1.8547    0.5616   -0.1029 C   0  0  0  0  0  0  0  0  0  0  0  0
   -4.2615    0.9584    0.1945 C   0  0  0  0  0  0  0  0  0  0  0  0
   -1.9460    1.5925    0.4639 C   0  0  0  0  0  0  0  0  0  0  0  0
    6.4742   -0.3551   -0.3196 C   0  0  0  0  0  0  0  0  0  0  0  0
    6.0498   -1.1902    0.7080 C   0  0  0  0  0  0  0  0  0  0  0  0
   -3.2979    1.9351    0.4463 C   0  0  0  0  0  0  0  0  0  0  0  0
   -4.8632   -1.3951   -0.3049 C   0  0  0  0  0  0  0  0  0  0  0  0
    5.9090    1.1232   -1.7906 H   0  0  0  0  0  0  0  0  0  0  0  0
    4.3855   -1.8732    1.8966 H   0  0  0  0  0  0  0  0  0  0  0  0
   -2.1963   -1.7275   -0.1896 H   0  0  0  0  0  0  0  0  0  0  0  0
   -1.2263    2.3776    0.6814 H   0  0  0  0  0  0  0  0  0  0  0  0
    7.5224   -0.3457   -0.6069 H   0  0  0  0  0  0  0  0  0  0  0  0
    6.7670   -1.8279    1.2174 H   0  0  0  0  0  0  0  0  0  0  0  0
   -3.5867    2.9659    0.6338 H   0  0  0  0  0  0  0  0  0  0  0  0
   -5.6516    2.2661    0.3609 H   0  0  0  0  0  0  0  0  0  0  0  0
   -5.0543   -3.0723   -1.2836 H   0  0  0  0  0  0  0  0  0  0  0  0
  1  8  1  0  0  0  0
  1 15  1  0  0  0  0
  2 16  1  0  0  0  0
  2 29  1  0  0  0  0
  3 21  1  0  0  0  0
  3 30  1  0  0  0  0
  4 21  2  0  0  0  0
  5  9  1  0  0  0  0
  5 15  2  0  0  0  0
  6  7  2  0  0  0  0
  6 11  1  0  0  0  0
  7 15  1  0  0  0  0
  8  9  1  0  0  0  0
  8 12  2  0  0  0  0
  9 13  2  0  0  0  0
 10 14  1  0  0  0  0
 10 16  2  0  0  0  0
 10 21  1  0  0  0  0
 11 14  2  0  0  0  0
 11 17  1  0  0  0  0
 12 18  1  0  0  0  0
 12 22  1  0  0  0  0
 13 19  1  0  0  0  0
 13 23  1  0  0  0  0
 14 24  1  0  0  0  0
 16 20  1  0  0  0  0
 17 20  2  0  0  0  0
 17 25  1  0  0  0  0
 18 19  2  0  0  0  0
 18 26  1  0  0  0  0
 19 27  1  0  0  0  0
 20 28  1  0  0  0  0
M  END
> <PUBCHEM_COMPOUND_CID>
145925915

> <PUBCHEM_CONFORMER_RMSD>
0.6

> <PUBCHEM_CONFORMER_DIVERSEORDER>
3
9
7
13
15
12
11
1
16
14
5
4
10
8
2
6

> <PUBCHEM_MMFF94_PARTIAL_CHARGES>
30
1 -0.08
10 0.09
11 0.18
12 -0.15
13 -0.15
14 -0.15
15 0.5
16 0.08
17 -0.15
18 -0.15
19 -0.15
2 -0.53
20 -0.15
21 0.63
22 0.15
23 0.15
24 0.15
25 0.15
26 0.15
27 0.15
28 0.15
29 0.45
3 -0.65
30 0.5
4 -0.57
5 -0.57
6 -0.18
7 -0.13
8 0.04
9 0.23

> <PUBCHEM_EFFECTIVE_ROTOR_COUNT>
3

> <PUBCHEM_PHARMACOPHORE_FEATURES>
8
1 2 donor
1 3 acceptor
1 4 acceptor
3 3 4 21 anion
3 5 7 15 cation
5 1 5 8 9 15 rings
6 10 11 14 16 17 20 rings
6 8 9 12 13 18 19 rings

> <PUBCHEM_HEAVY_ATOM_COUNT>
21

> <PUBCHEM_ATOM_DEF_STEREO_COUNT>
0

> <PUBCHEM_ATOM_UDEF_STEREO_COUNT>
0

> <PUBCHEM_BOND_DEF_STEREO_COUNT>
0

> <PUBCHEM_BOND_UDEF_STEREO_COUNT>
0

> <PUBCHEM_ISOTOPIC_ATOM_COUNT>
0

> <PUBCHEM_COMPONENT_COUNT>
1

> <PUBCHEM_CACTVS_TAUTO_COUNT>
-1

> <PUBCHEM_CONFORMER_ID>
08B2A71B00000003

> <PUBCHEM_MMFF94_ENERGY>
55.3072

> <PUBCHEM_FEATURE_SELFOVERLAP>
40.724

> <PUBCHEM_SHAPE_FINGERPRINT>
10 15 17060044966089821194
10595046 47 18335141990503157936
10912923 1 18334861597794915616
11315181 36 18272091595266440129
11524674 6 16559030502381764887
11545043 162 17846775213106531667
11796584 16 18201721730323779806
12107183 9 17542220160542886664
12166972 35 18260833725874983708
12236239 1 18334016090348265620
12516196 113 18411135840579633384
12596602 18 18272930527571366384
12616971 3 18114190730512278861
13167823 11 18408040710419175018
13288520 33 18413389852359127913
13533116 47 18334859476017845676
13668630 136 18259704501747641934
1420 363 16917352536874150110
14251751 18 18060133279770976218
14251752 14 18041272184736871957
14528608 73 18260835912566666572
15183329 4 17894907416928418486
15250474 111 18334847321086818666
15348495 7 16415190230282157850
15788980 27 18335424560358808616
17834072 33 18334859420183043348
17844677 252 18130791178437873672
17857418 61 18334574637975915866
18222031 100 18041273331635460520
18681886 176 18413107286608573192
18927931 339 18202282520282951007
19489759 90 17989205915162097697
200 152 18260267460127084297
20028762 73 18262512586453915170
20612939 158 17313393357109021556
20645477 70 16877937210019696770
21033648 29 15769200649226070976
21054139 6 18334573564345394410
21150785 3 15647337476231318011
21267235 1 18410298051526785627
21641784 216 16009607750596721422
21709351 56 18040994038022056389
220451 1 18409454656850552672
22061861 79 15285352891123058778
221357 26 17022896861337460052
22646028 1 18334857216622155928
2297311 6 17988651791266307681
2303208 19 16773804688435100340
23081809 10 18114186324218523036
23402539 116 18410572885935430605
23522609 53 18192744243321210637
23536379 177 18333452019345102584
23557571 272 17346045458892215192
23559900 14 18271236218264863385
23569914 152 15074754529488109202
29717793 49 18334299747584951414
3004659 81 18335423465558710604
314194 84 18041282089115722290
335352 9 18413386532766574997
338550 245 18341895190842279270
34797466 226 17703800258156423636
351380 3 18410290336974419495
397830 11 16987699359729068602
4015057 19 17386016120876217525
4073 2 17604158137621948034
4214541 1 18410856546966228577
465052 167 18059858355537095110
5104073 3 18201161048176401529
5283156 175 18335139800101271135
531348 171 17750504088434690269
542803 24 17894352172436508904
559249 180 18409445865348026595
573450 72 18411417284842603153
59755656 215 18059860527878261902
59755656 520 17095245817820351803
67856867 119 18337674221437581740
7495541 125 18060416945682278472
9971528 1 17748828536147122636

> <PUBCHEM_SHAPE_MULTIPOLES>
403.47
17.06
1.78
0.95
4.07
0.18
0.11
5.18
0.72
-2.04
0.14
0.62
0.06
-2.08

> <PUBCHEM_SHAPE_SELFOVERLAP>
881.338

> <PUBCHEM_SHAPE_VOLUME>
220.4

> <PUBCHEM_COORDINATE_TYPE>
2
5
10

$$$$
